data_image0
_chemical_formula_structural       C192
_chemical_formula_sum              "C192"
_cell_length_a       3.80453
_cell_length_b       3.80453
_cell_length_c       3.80453
_cell_angle_alpha    90
_cell_angle_beta     90
_cell_angle_gamma    90

_space_group_name_H-M_alt    "P 1"
_space_group_IT_number       1

loop_
  _space_group_symop_operation_xyz
  'x, y, z'

loop_
  _atom_site_type_symbol
  _atom_site_label
  _atom_site_symmetry_multiplicity
  _atom_site_fract_x
  _atom_site_fract_y
  _atom_site_fract_z
  _atom_site_occupancy
  C   C1        1.0  0.50000  0.47525  0.47525  1.0000
  C   C2        1.0  0.50000  0.52475  0.47525  1.0000
  C   C3        1.0  0.50000  0.47525  0.52475  1.0000
  C   C4        1.0  0.50000  0.52475  0.52475  1.0000
  C   C5        1.0  0.47525  0.50000  0.47525  1.0000
  C   C6        1.0  0.47525  0.50000  0.52475  1.0000
  C   C7        1.0  0.52475  0.50000  0.47525  1.0000
  C   C8        1.0  0.52475  0.50000  0.52475  1.0000
  C   C9        1.0  0.47525  0.47525  0.50000  1.0000
  C   C10       1.0  0.52475  0.47525  0.50000  1.0000
  C   C11       1.0  0.47525  0.52475  0.50000  1.0000
  C   C12       1.0  0.52475  0.52475  0.50000  1.0000
  C   C13       1.0  0.50000  0.97525  0.97525  1.0000
  C   C14       1.0  0.50000  0.02475  0.97525  1.0000
  C   C15       1.0  0.50000  0.97525  0.02475  1.0000
  C   C16       1.0  0.50000  0.02475  0.02475  1.0000
  C   C17       1.0  0.47525  0.00000  0.97525  1.0000
  C   C18       1.0  0.47525  0.00000  0.02475  1.0000
  C   C19       1.0  0.52475  0.00000  0.97525  1.0000
  C   C20       1.0  0.52475  0.00000  0.02475  1.0000
  C   C21       1.0  0.47525  0.97525  0.00000  1.0000
  C   C22       1.0  0.52475  0.97525  0.00000  1.0000
  C   C23       1.0  0.47525  0.02475  0.00000  1.0000
  C   C24       1.0  0.52475  0.02475  0.00000  1.0000
  C   C25       1.0  0.00000  0.47525  0.97525  1.0000
  C   C26       1.0  0.00000  0.52475  0.97525  1.0000
  C   C27       1.0  0.00000  0.47525  0.02475  1.0000
  C   C28       1.0  0.00000  0.52475  0.02475  1.0000
  C   C29       1.0  0.97525  0.50000  0.97525  1.0000
  C   C30       1.0  0.97525  0.50000  0.02475  1.0000
  C   C31       1.0  0.02475  0.50000  0.97525  1.0000
  C   C32       1.0  0.02475  0.50000  0.02475  1.0000
  C   C33       1.0  0.97525  0.47525  0.00000  1.0000
  C   C34       1.0  0.02475  0.47525  0.00000  1.0000
  C   C35       1.0  0.97525  0.52475  0.00000  1.0000
  C   C36       1.0  0.02475  0.52475  0.00000  1.0000
  C   C37       1.0  0.00000  0.97525  0.47525  1.0000
  C   C38       1.0  0.00000  0.02475  0.47525  1.0000
  C   C39       1.0  0.00000  0.97525  0.52475  1.0000
  C   C40       1.0  0.00000  0.02475  0.52475  1.0000
  C   C41       1.0  0.97525  0.00000  0.47525  1.0000
  C   C42       1.0  0.97525  0.00000  0.52475  1.0000
  C   C43       1.0  0.02475  0.00000  0.47525  1.0000
  C   C44       1.0  0.02475  0.00000  0.52475  1.0000
  C   C45       1.0  0.97525  0.97525  0.50000  1.0000
  C   C46       1.0  0.02475  0.97525  0.50000  1.0000
  C   C47       1.0  0.97525  0.02475  0.50000  1.0000
  C   C48       1.0  0.02475  0.02475  0.50000  1.0000
  C   C49       1.0  0.50000  0.16206  0.16206  1.0000
  C   C50       1.0  0.50000  0.83794  0.16206  1.0000
  C   C51       1.0  0.50000  0.16206  0.83794  1.0000
  C   C52       1.0  0.50000  0.83794  0.83794  1.0000
  C   C53       1.0  0.16206  0.50000  0.16206  1.0000
  C   C54       1.0  0.16206  0.50000  0.83794  1.0000
  C   C55       1.0  0.83794  0.50000  0.16206  1.0000
  C   C56       1.0  0.83794  0.50000  0.83794  1.0000
  C   C57       1.0  0.16206  0.16206  0.50000  1.0000
  C   C58       1.0  0.83794  0.16206  0.50000  1.0000
  C   C59       1.0  0.16206  0.83794  0.50000  1.0000
  C   C60       1.0  0.83794  0.83794  0.50000  1.0000
  C   C61       1.0  0.50000  0.66206  0.66206  1.0000
  C   C62       1.0  0.50000  0.33794  0.66206  1.0000
  C   C63       1.0  0.50000  0.66206  0.33794  1.0000
  C   C64       1.0  0.50000  0.33794  0.33794  1.0000
  C   C65       1.0  0.16206  0.00000  0.66206  1.0000
  C   C66       1.0  0.16206  0.00000  0.33794  1.0000
  C   C67       1.0  0.83794  0.00000  0.66206  1.0000
  C   C68       1.0  0.83794  0.00000  0.33794  1.0000
  C   C69       1.0  0.16206  0.66206  0.00000  1.0000
  C   C70       1.0  0.83794  0.66206  0.00000  1.0000
  C   C71       1.0  0.16206  0.33794  0.00000  1.0000
  C   C72       1.0  0.83794  0.33794  0.00000  1.0000
  C   C73       1.0  0.00000  0.16206  0.66206  1.0000
  C   C74       1.0  0.00000  0.83794  0.66206  1.0000
  C   C75       1.0  0.00000  0.16206  0.33794  1.0000
  C   C76       1.0  0.00000  0.83794  0.33794  1.0000
  C   C77       1.0  0.66206  0.50000  0.66206  1.0000
  C   C78       1.0  0.66206  0.50000  0.33794  1.0000
  C   C79       1.0  0.33794  0.50000  0.66206  1.0000
  C   C80       1.0  0.33794  0.50000  0.33794  1.0000
  C   C81       1.0  0.66206  0.16206  0.00000  1.0000
  C   C82       1.0  0.33794  0.16206  0.00000  1.0000
  C   C83       1.0  0.66206  0.83794  0.00000  1.0000
  C   C84       1.0  0.33794  0.83794  0.00000  1.0000
  C   C85       1.0  0.00000  0.66206  0.16206  1.0000
  C   C86       1.0  0.00000  0.33794  0.16206  1.0000
  C   C87       1.0  0.00000  0.66206  0.83794  1.0000
  C   C88       1.0  0.00000  0.33794  0.83794  1.0000
  C   C89       1.0  0.66206  0.00000  0.16206  1.0000
  C   C90       1.0  0.66206  0.00000  0.83794  1.0000
  C   C91       1.0  0.33794  0.00000  0.16206  1.0000
  C   C92       1.0  0.33794  0.00000  0.83794  1.0000
  C   C93       1.0  0.66206  0.66206  0.50000  1.0000
  C   C94       1.0  0.33794  0.66206  0.50000  1.0000
  C   C95       1.0  0.66206  0.33794  0.50000  1.0000
  C   C96       1.0  0.33794  0.33794  0.50000  1.0000
  C   C97       1.0  0.75892  0.75892  0.28478  1.0000
  C   C98       1.0  0.24108  0.24108  0.28478  1.0000
  C   C99       1.0  0.24108  0.75892  0.71522  1.0000
  C   C100      1.0  0.75892  0.24108  0.71522  1.0000
  C   C101      1.0  0.28478  0.75892  0.75892  1.0000
  C   C102      1.0  0.28478  0.24108  0.24108  1.0000
  C   C103      1.0  0.71522  0.24108  0.75892  1.0000
  C   C104      1.0  0.71522  0.75892  0.24108  1.0000
  C   C105      1.0  0.75892  0.28478  0.75892  1.0000
  C   C106      1.0  0.24108  0.28478  0.24108  1.0000
  C   C107      1.0  0.75892  0.71522  0.24108  1.0000
  C   C108      1.0  0.24108  0.71522  0.75892  1.0000
  C   C109      1.0  0.75892  0.75892  0.71522  1.0000
  C   C110      1.0  0.24108  0.24108  0.71522  1.0000
  C   C111      1.0  0.75892  0.24108  0.28478  1.0000
  C   C112      1.0  0.24108  0.75892  0.28478  1.0000
  C   C113      1.0  0.75892  0.28478  0.24108  1.0000
  C   C114      1.0  0.24108  0.28478  0.75892  1.0000
  C   C115      1.0  0.24108  0.71522  0.24108  1.0000
  C   C116      1.0  0.75892  0.71522  0.75892  1.0000
  C   C117      1.0  0.28478  0.75892  0.24108  1.0000
  C   C118      1.0  0.28478  0.24108  0.75892  1.0000
  C   C119      1.0  0.71522  0.75892  0.75892  1.0000
  C   C120      1.0  0.71522  0.24108  0.24108  1.0000
  C   C121      1.0  0.75892  0.25892  0.78478  1.0000
  C   C122      1.0  0.24108  0.74108  0.78478  1.0000
  C   C123      1.0  0.24108  0.25892  0.21522  1.0000
  C   C124      1.0  0.75892  0.74108  0.21522  1.0000
  C   C125      1.0  0.28478  0.25892  0.25892  1.0000
  C   C126      1.0  0.28478  0.74108  0.74108  1.0000
  C   C127      1.0  0.71522  0.74108  0.25892  1.0000
  C   C128      1.0  0.71522  0.25892  0.74108  1.0000
  C   C129      1.0  0.75892  0.78478  0.25892  1.0000
  C   C130      1.0  0.24108  0.78478  0.74108  1.0000
  C   C131      1.0  0.75892  0.21522  0.74108  1.0000
  C   C132      1.0  0.24108  0.21522  0.25892  1.0000
  C   C133      1.0  0.75892  0.25892  0.21522  1.0000
  C   C134      1.0  0.24108  0.74108  0.21522  1.0000
  C   C135      1.0  0.75892  0.74108  0.78478  1.0000
  C   C136      1.0  0.24108  0.25892  0.78478  1.0000
  C   C137      1.0  0.75892  0.78478  0.74108  1.0000
  C   C138      1.0  0.24108  0.78478  0.25892  1.0000
  C   C139      1.0  0.24108  0.21522  0.74108  1.0000
  C   C140      1.0  0.75892  0.21522  0.25892  1.0000
  C   C141      1.0  0.28478  0.25892  0.74108  1.0000
  C   C142      1.0  0.28478  0.74108  0.25892  1.0000
  C   C143      1.0  0.71522  0.25892  0.25892  1.0000
  C   C144      1.0  0.71522  0.74108  0.74108  1.0000
  C   C145      1.0  0.25892  0.75892  0.78478  1.0000
  C   C146      1.0  0.74108  0.24108  0.78478  1.0000
  C   C147      1.0  0.74108  0.75892  0.21522  1.0000
  C   C148      1.0  0.25892  0.24108  0.21522  1.0000
  C   C149      1.0  0.78478  0.75892  0.25892  1.0000
  C   C150      1.0  0.78478  0.24108  0.74108  1.0000
  C   C151      1.0  0.21522  0.24108  0.25892  1.0000
  C   C152      1.0  0.21522  0.75892  0.74108  1.0000
  C   C153      1.0  0.25892  0.28478  0.25892  1.0000
  C   C154      1.0  0.74108  0.28478  0.74108  1.0000
  C   C155      1.0  0.25892  0.71522  0.74108  1.0000
  C   C156      1.0  0.74108  0.71522  0.25892  1.0000
  C   C157      1.0  0.25892  0.75892  0.21522  1.0000
  C   C158      1.0  0.74108  0.24108  0.21522  1.0000
  C   C159      1.0  0.25892  0.24108  0.78478  1.0000
  C   C160      1.0  0.74108  0.75892  0.78478  1.0000
  C   C161      1.0  0.25892  0.28478  0.74108  1.0000
  C   C162      1.0  0.74108  0.28478  0.25892  1.0000
  C   C163      1.0  0.74108  0.71522  0.74108  1.0000
  C   C164      1.0  0.25892  0.71522  0.25892  1.0000
  C   C165      1.0  0.78478  0.75892  0.74108  1.0000
  C   C166      1.0  0.78478  0.24108  0.25892  1.0000
  C   C167      1.0  0.21522  0.75892  0.25892  1.0000
  C   C168      1.0  0.21522  0.24108  0.74108  1.0000
  C   C169      1.0  0.25892  0.25892  0.28478  1.0000
  C   C170      1.0  0.74108  0.74108  0.28478  1.0000
  C   C171      1.0  0.74108  0.25892  0.71522  1.0000
  C   C172      1.0  0.25892  0.74108  0.71522  1.0000
  C   C173      1.0  0.78478  0.25892  0.75892  1.0000
  C   C174      1.0  0.78478  0.74108  0.24108  1.0000
  C   C175      1.0  0.21522  0.74108  0.75892  1.0000
  C   C176      1.0  0.21522  0.25892  0.24108  1.0000
  C   C177      1.0  0.25892  0.78478  0.75892  1.0000
  C   C178      1.0  0.74108  0.78478  0.24108  1.0000
  C   C179      1.0  0.25892  0.21522  0.24108  1.0000
  C   C180      1.0  0.74108  0.21522  0.75892  1.0000
  C   C181      1.0  0.25892  0.25892  0.71522  1.0000
  C   C182      1.0  0.74108  0.74108  0.71522  1.0000
  C   C183      1.0  0.25892  0.74108  0.28478  1.0000
  C   C184      1.0  0.74108  0.25892  0.28478  1.0000
  C   C185      1.0  0.25892  0.78478  0.24108  1.0000
  C   C186      1.0  0.74108  0.78478  0.75892  1.0000
  C   C187      1.0  0.74108  0.21522  0.24108  1.0000
  C   C188      1.0  0.25892  0.21522  0.75892  1.0000
  C   C189      1.0  0.78478  0.25892  0.24108  1.0000
  C   C190      1.0  0.78478  0.74108  0.75892  1.0000
  C   C191      1.0  0.21522  0.25892  0.75892  1.0000
  C   C192      1.0  0.21522  0.74108  0.24108  1.0000
