data_image0
_chemical_formula_structural       H64La48H48
_chemical_formula_sum              "H112 La48"
_cell_length_a       3.3401
_cell_length_b       3.3401
_cell_length_c       3.3401
_cell_angle_alpha    90
_cell_angle_beta     90
_cell_angle_gamma    90

_space_group_name_H-M_alt    "P 1"
_space_group_IT_number       1

loop_
  _space_group_symop_operation_xyz
  'x, y, z'

loop_
  _atom_site_type_symbol
  _atom_site_label
  _atom_site_symmetry_multiplicity
  _atom_site_fract_x
  _atom_site_fract_y
  _atom_site_fract_z
  _atom_site_occupancy
  H   H1        1.0  0.83700  0.83700  0.83700  1.0000
  H   H2        1.0  0.66300  0.16300  0.33700  1.0000
  H   H3        1.0  0.16300  0.33700  0.66300  1.0000
  H   H4        1.0  0.33700  0.66300  0.16300  1.0000
  H   H5        1.0  0.08700  0.08700  0.08700  1.0000
  H   H6        1.0  0.41300  0.91300  0.58700  1.0000
  H   H7        1.0  0.58700  0.41300  0.91300  1.0000
  H   H8        1.0  0.91300  0.58700  0.41300  1.0000
  H   H9        1.0  0.33700  0.33700  0.33700  1.0000
  H   H10       1.0  0.16300  0.66300  0.83700  1.0000
  H   H11       1.0  0.66300  0.83700  0.16300  1.0000
  H   H12       1.0  0.83700  0.16300  0.66300  1.0000
  H   H13       1.0  0.58700  0.58700  0.58700  1.0000
  H   H14       1.0  0.91300  0.41300  0.08700  1.0000
  H   H15       1.0  0.08700  0.91300  0.41300  1.0000
  H   H16       1.0  0.41300  0.08700  0.91300  1.0000
  H   H17       1.0  0.52312  0.15082  0.05973  1.0000
  H   H18       1.0  0.97688  0.84918  0.55973  1.0000
  H   H19       1.0  0.47688  0.65082  0.44027  1.0000
  H   H20       1.0  0.02312  0.34918  0.94027  1.0000
  H   H21       1.0  0.05973  0.52312  0.15082  1.0000
  H   H22       1.0  0.55973  0.97688  0.84918  1.0000
  H   H23       1.0  0.44027  0.47688  0.65082  1.0000
  H   H24       1.0  0.94027  0.02312  0.34918  1.0000
  H   H25       1.0  0.15082  0.05973  0.52312  1.0000
  H   H26       1.0  0.84918  0.55973  0.97688  1.0000
  H   H27       1.0  0.65082  0.44027  0.47688  1.0000
  H   H28       1.0  0.34918  0.94027  0.02312  1.0000
  H   H29       1.0  0.40082  0.77312  0.30973  1.0000
  H   H30       1.0  0.09918  0.22688  0.80973  1.0000
  H   H31       1.0  0.90082  0.72688  0.69027  1.0000
  H   H32       1.0  0.59918  0.27312  0.19027  1.0000
  H   H33       1.0  0.77312  0.30973  0.40082  1.0000
  H   H34       1.0  0.22688  0.80973  0.09918  1.0000
  H   H35       1.0  0.72688  0.69027  0.90082  1.0000
  H   H36       1.0  0.27312  0.19027  0.59918  1.0000
  H   H37       1.0  0.30973  0.40082  0.77312  1.0000
  H   H38       1.0  0.80973  0.09918  0.22688  1.0000
  H   H39       1.0  0.69027  0.90082  0.72688  1.0000
  H   H40       1.0  0.19027  0.59918  0.27312  1.0000
  H   H41       1.0  0.02312  0.65082  0.55973  1.0000
  H   H42       1.0  0.47688  0.34918  0.05973  1.0000
  H   H43       1.0  0.97688  0.15082  0.94027  1.0000
  H   H44       1.0  0.52312  0.84918  0.44027  1.0000
  H   H45       1.0  0.55973  0.02312  0.65082  1.0000
  H   H46       1.0  0.05973  0.47688  0.34918  1.0000
  H   H47       1.0  0.94027  0.97688  0.15082  1.0000
  H   H48       1.0  0.44027  0.52312  0.84918  1.0000
  H   H49       1.0  0.65082  0.55973  0.02312  1.0000
  H   H50       1.0  0.34918  0.05973  0.47688  1.0000
  H   H51       1.0  0.15082  0.94027  0.97688  1.0000
  H   H52       1.0  0.84918  0.44027  0.52312  1.0000
  H   H53       1.0  0.90082  0.27312  0.80973  1.0000
  H   H54       1.0  0.59918  0.72688  0.30973  1.0000
  H   H55       1.0  0.40082  0.22688  0.19027  1.0000
  H   H56       1.0  0.09918  0.77312  0.69027  1.0000
  H   H57       1.0  0.27312  0.80973  0.90082  1.0000
  H   H58       1.0  0.72688  0.30973  0.59918  1.0000
  H   H59       1.0  0.22688  0.19027  0.40082  1.0000
  H   H60       1.0  0.77312  0.69027  0.09918  1.0000
  H   H61       1.0  0.80973  0.90082  0.27312  1.0000
  H   H62       1.0  0.30973  0.59918  0.72688  1.0000
  H   H63       1.0  0.19027  0.40082  0.22688  1.0000
  H   H64       1.0  0.69027  0.09918  0.77312  1.0000
  La  La1       1.0  0.76814  0.34470  0.29921  1.0000
  La  La2       1.0  0.73186  0.65530  0.79921  1.0000
  La  La3       1.0  0.23186  0.84470  0.20079  1.0000
  La  La4       1.0  0.26814  0.15530  0.70079  1.0000
  La  La5       1.0  0.29921  0.76814  0.34470  1.0000
  La  La6       1.0  0.79921  0.73186  0.65530  1.0000
  La  La7       1.0  0.20079  0.23186  0.84470  1.0000
  La  La8       1.0  0.70079  0.26814  0.15530  1.0000
  La  La9       1.0  0.34470  0.29921  0.76814  1.0000
  La  La10      1.0  0.65530  0.79921  0.73186  1.0000
  La  La11      1.0  0.84470  0.20079  0.23186  1.0000
  La  La12      1.0  0.15530  0.70079  0.26814  1.0000
  La  La13      1.0  0.59470  0.01814  0.54921  1.0000
  La  La14      1.0  0.90530  0.98186  0.04921  1.0000
  La  La15      1.0  0.09470  0.48186  0.45079  1.0000
  La  La16      1.0  0.40530  0.51814  0.95079  1.0000
  La  La17      1.0  0.01814  0.54921  0.59470  1.0000
  La  La18      1.0  0.98186  0.04921  0.90530  1.0000
  La  La19      1.0  0.48186  0.45079  0.09470  1.0000
  La  La20      1.0  0.51814  0.95079  0.40530  1.0000
  La  La21      1.0  0.54921  0.59470  0.01814  1.0000
  La  La22      1.0  0.04921  0.90530  0.98186  1.0000
  La  La23      1.0  0.45079  0.09470  0.48186  1.0000
  La  La24      1.0  0.95079  0.40530  0.51814  1.0000
  La  La25      1.0  0.26814  0.84470  0.79921  1.0000
  La  La26      1.0  0.23186  0.15530  0.29921  1.0000
  La  La27      1.0  0.73186  0.34470  0.70079  1.0000
  La  La28      1.0  0.76814  0.65530  0.20079  1.0000
  La  La29      1.0  0.79921  0.26814  0.84470  1.0000
  La  La30      1.0  0.29921  0.23186  0.15530  1.0000
  La  La31      1.0  0.70079  0.73186  0.34470  1.0000
  La  La32      1.0  0.20079  0.76814  0.65530  1.0000
  La  La33      1.0  0.84470  0.79921  0.26814  1.0000
  La  La34      1.0  0.15530  0.29921  0.23186  1.0000
  La  La35      1.0  0.34470  0.70079  0.73186  1.0000
  La  La36      1.0  0.65530  0.20079  0.76814  1.0000
  La  La37      1.0  0.09470  0.51814  0.04921  1.0000
  La  La38      1.0  0.40530  0.48186  0.54921  1.0000
  La  La39      1.0  0.59470  0.98186  0.95079  1.0000
  La  La40      1.0  0.90530  0.01814  0.45079  1.0000
  La  La41      1.0  0.51814  0.04921  0.09470  1.0000
  La  La42      1.0  0.48186  0.54921  0.40530  1.0000
  La  La43      1.0  0.98186  0.95079  0.59470  1.0000
  La  La44      1.0  0.01814  0.45079  0.90530  1.0000
  La  La45      1.0  0.04921  0.09470  0.51814  1.0000
  La  La46      1.0  0.54921  0.40530  0.48186  1.0000
  La  La47      1.0  0.95079  0.59470  0.98186  1.0000
  La  La48      1.0  0.45079  0.90530  0.01814  1.0000
  H   H65       1.0  0.39150  0.85869  0.41449  1.0000
  H   H66       1.0  0.10850  0.14131  0.91449  1.0000
  H   H67       1.0  0.60850  0.35869  0.08551  1.0000
  H   H68       1.0  0.89150  0.64131  0.58551  1.0000
  H   H69       1.0  0.41449  0.39150  0.85869  1.0000
  H   H70       1.0  0.91449  0.10850  0.14131  1.0000
  H   H71       1.0  0.08551  0.60850  0.35869  1.0000
  H   H72       1.0  0.58551  0.89150  0.64131  1.0000
  H   H73       1.0  0.85869  0.41449  0.39150  1.0000
  H   H74       1.0  0.14131  0.91449  0.10850  1.0000
  H   H75       1.0  0.35869  0.08551  0.60850  1.0000
  H   H76       1.0  0.64131  0.58551  0.89150  1.0000
  H   H77       1.0  0.10869  0.64150  0.66449  1.0000
  H   H78       1.0  0.39131  0.35850  0.16449  1.0000
  H   H79       1.0  0.60869  0.85850  0.33551  1.0000
  H   H80       1.0  0.89131  0.14150  0.83551  1.0000
  H   H81       1.0  0.64150  0.66449  0.10869  1.0000
  H   H82       1.0  0.35850  0.16449  0.39131  1.0000
  H   H83       1.0  0.85850  0.33551  0.60869  1.0000
  H   H84       1.0  0.14150  0.83551  0.89131  1.0000
  H   H85       1.0  0.66449  0.10869  0.64150  1.0000
  H   H86       1.0  0.16449  0.39131  0.35850  1.0000
  H   H87       1.0  0.33551  0.60869  0.85850  1.0000
  H   H88       1.0  0.83551  0.89131  0.14150  1.0000
  H   H89       1.0  0.89150  0.35869  0.91449  1.0000
  H   H90       1.0  0.60850  0.64131  0.41449  1.0000
  H   H91       1.0  0.10850  0.85869  0.58551  1.0000
  H   H92       1.0  0.39150  0.14131  0.08551  1.0000
  H   H93       1.0  0.91449  0.89150  0.35869  1.0000
  H   H94       1.0  0.41449  0.60850  0.64131  1.0000
  H   H95       1.0  0.58551  0.10850  0.85869  1.0000
  H   H96       1.0  0.08551  0.39150  0.14131  1.0000
  H   H97       1.0  0.35869  0.91449  0.89150  1.0000
  H   H98       1.0  0.64131  0.41449  0.60850  1.0000
  H   H99       1.0  0.85869  0.58551  0.10850  1.0000
  H   H100      1.0  0.14131  0.08551  0.39150  1.0000
  H   H101      1.0  0.60869  0.14150  0.16449  1.0000
  H   H102      1.0  0.89131  0.85850  0.66449  1.0000
  H   H103      1.0  0.10869  0.35850  0.83551  1.0000
  H   H104      1.0  0.39131  0.64150  0.33551  1.0000
  H   H105      1.0  0.14150  0.16449  0.60869  1.0000
  H   H106      1.0  0.85850  0.66449  0.89131  1.0000
  H   H107      1.0  0.35850  0.83551  0.10869  1.0000
  H   H108      1.0  0.64150  0.33551  0.39131  1.0000
  H   H109      1.0  0.16449  0.60869  0.14150  1.0000
  H   H110      1.0  0.66449  0.89131  0.85850  1.0000
  H   H111      1.0  0.83551  0.10869  0.35850  1.0000
  H   H112      1.0  0.33551  0.39131  0.64150  1.0000
