# generated using pymatgen
data_Rb2AgBiBr6
_symmetry_space_group_name_H-M   'P 1'
_cell_length_a   11.45902591
_cell_length_b   11.45902540
_cell_length_c   11.45902247
_cell_angle_alpha   90.00000027
_cell_angle_beta   89.99999991
_cell_angle_gamma   89.99999943
_symmetry_Int_Tables_number   1
_chemical_formula_structural   Rb2AgBiBr6
_chemical_formula_sum   'Rb8 Ag4 Bi4 Br24'
_cell_volume   1504.67586355
_cell_formula_units_Z   4
loop_
 _symmetry_equiv_pos_site_id
 _symmetry_equiv_pos_as_xyz
  1  'x, y, z'
loop_
 _atom_site_type_symbol
 _atom_site_label
 _atom_site_symmetry_multiplicity
 _atom_site_fract_x
 _atom_site_fract_y
 _atom_site_fract_z
 _atom_site_occupancy
  Rb  Rb8  1  0.25000000  0.24999999  0.25000001  1.0
  Rb  Rb9  1  0.25000000  0.24999999  0.74999999  1.0
  Rb  Rb10  1  0.25000000  0.75000001  0.74999999  1.0
  Rb  Rb11  1  0.25000000  0.75000001  0.25000001  1.0
  Rb  Rb12  1  0.75000000  0.24999999  0.74999999  1.0
  Rb  Rb13  1  0.75000000  0.24999999  0.25000001  1.0
  Rb  Rb14  1  0.75000001  0.75000001  0.25000001  1.0
  Rb  Rb15  1  0.75000001  0.75000001  0.74999999  1.0
  Ag  Ag4  1  0.49999999  0.49999998  0.49999999  1.0
  Ag  Ag5  1  0.49999998  0.99999999  0.00000000  1.0
  Ag  Ag6  1  0.99999999  0.50000001  0.99999999  1.0
  Ag  Ag7  1  0.99999999  0.00000000  0.50000000  1.0
  Bi  Bi0  1  0.00000007  0.99999999  0.00000001  1.0
  Bi  Bi1  1  0.00000002  0.50000005  0.50000005  1.0
  Bi  Bi2  1  0.50000010  0.00000009  0.50000000  1.0
  Bi  Bi3  1  0.50000005  0.50000000  0.99999999  1.0
  Br  Br16  1  0.25043212  0.00000000  0.00000000  1.0
  Br  Br17  1  0.74956784  0.00000000  0.00000000  1.0
  Br  Br18  1  0.00000000  0.25043210  0.00000000  1.0
  Br  Br19  1  0.00000000  0.74956789  0.00000000  1.0
  Br  Br20  1  0.00000000  0.00000000  0.25043209  1.0
  Br  Br21  1  0.00000000  0.00000000  0.74956791  1.0
  Br  Br22  1  0.25043211  0.50000000  0.50000000  1.0
  Br  Br23  1  0.74956788  0.50000000  0.50000000  1.0
  Br  Br24  1  0.00000000  0.75043209  0.50000000  1.0
  Br  Br25  1  0.00000000  0.24956786  0.50000000  1.0
  Br  Br26  1  0.00000000  0.50000000  0.75043209  1.0
  Br  Br27  1  0.00000000  0.50000000  0.24956787  1.0
  Br  Br28  1  0.75043204  0.00000000  0.50000000  1.0
  Br  Br29  1  0.24956787  0.00000000  0.50000000  1.0
  Br  Br30  1  0.50000000  0.25043206  0.50000000  1.0
  Br  Br31  1  0.50000000  0.74956787  0.50000000  1.0
  Br  Br32  1  0.50000000  0.00000000  0.75043205  1.0
  Br  Br33  1  0.50000000  0.00000000  0.24956794  1.0
  Br  Br34  1  0.75043214  0.50000000  0.00000000  1.0
  Br  Br35  1  0.24956782  0.50000000  0.00000000  1.0
  Br  Br36  1  0.50000000  0.75043216  0.00000000  1.0
  Br  Br37  1  0.50000000  0.24956786  0.00000000  1.0
  Br  Br38  1  0.50000000  0.50000000  0.25043216  1.0
  Br  Br39  1  0.50000000  0.50000000  0.74956785  1.0
