# generated using pymatgen
data_Cs2ZnFe(CN)6
_symmetry_space_group_name_H-M   'P 1'
_cell_length_a   10.41963842
_cell_length_b   10.41965625
_cell_length_c   10.41963716
_cell_angle_alpha   89.99982985
_cell_angle_beta   90.00019595
_cell_angle_gamma   90.00000377
_symmetry_Int_Tables_number   1
_chemical_formula_structural   Cs2ZnFe(CN)6
_chemical_formula_sum   'Cs8 Zn4 Fe4 C24 N24'
_cell_volume   1131.25011390
_cell_formula_units_Z   4
loop_
 _symmetry_equiv_pos_site_id
 _symmetry_equiv_pos_as_xyz
  1  'x, y, z'
loop_
 _atom_site_type_symbol
 _atom_site_label
 _atom_site_symmetry_multiplicity
 _atom_site_fract_x
 _atom_site_fract_y
 _atom_site_fract_z
 _atom_site_occupancy
  Cs  Cs8  1  0.25000021  0.24999995  0.25000015  1.0
  Cs  Cs9  1  0.24999992  0.25000021  0.74999994  1.0
  Cs  Cs10  1  0.24999969  0.74999987  0.74999981  1.0
  Cs  Cs11  1  0.25000007  0.74999975  0.24999989  1.0
  Cs  Cs12  1  0.75000005  0.25000001  0.75000004  1.0
  Cs  Cs13  1  0.74999995  0.25000012  0.24999983  1.0
  Cs  Cs14  1  0.74999946  0.74999988  0.24999970  1.0
  Cs  Cs15  1  0.75000010  0.75000018  0.75000032  1.0
  Zn  Zn4  1  0.49999938  0.49999982  0.49999965  1.0
  Zn  Zn5  1  0.50000131  0.99999967  0.99999958  1.0
  Zn  Zn6  1  0.99999923  0.49999971  0.99999968  1.0
  Zn  Zn7  1  0.00000013  0.99999995  0.50000002  1.0
  Fe  Fe0  1  0.99999984  0.00000010  0.99999998  1.0
  Fe  Fe1  1  0.00000021  0.50000009  0.50000031  1.0
  Fe  Fe2  1  0.50000012  0.99999992  0.49999996  1.0
  Fe  Fe3  1  0.50000030  0.50000021  0.00000021  1.0
  C  C16  1  0.17989853  0.00000025  0.00000004  1.0
  C  C17  1  0.82010158  0.00000007  0.00000009  1.0
  C  C18  1  0.99999986  0.17989816  0.00000007  1.0
  C  C19  1  0.99999976  0.82010153  0.99999987  1.0
  C  C20  1  0.99999996  0.00000023  0.17989821  1.0
  C  C21  1  0.99999965  0.00000007  0.82010163  1.0
  C  C22  1  0.17989780  0.50000010  0.50000042  1.0
  C  C23  1  0.82010162  0.49999996  0.50000028  1.0
  C  C24  1  0.00000051  0.67989778  0.50000023  1.0
  C  C25  1  0.00000034  0.32010191  0.50000013  1.0
  C  C26  1  0.00000049  0.50000021  0.67989786  1.0
  C  C27  1  0.00000041  0.50000030  0.32010150  1.0
  C  C28  1  0.67989792  0.00000022  0.50000035  1.0
  C  C29  1  0.32010236  0.00000013  0.50000007  1.0
  C  C30  1  0.50000005  0.17989791  0.49999996  1.0
  C  C31  1  0.50000006  0.82010163  0.50000035  1.0
  C  C32  1  0.50000018  0.00000024  0.67989782  1.0
  C  C33  1  0.49999967  0.00000046  0.32010220  1.0
  C  C34  1  0.67989727  0.50000005  0.00000029  1.0
  C  C35  1  0.32010177  0.50000035  0.00000007  1.0
  C  C36  1  0.50000059  0.67989759  0.00000006  1.0
  C  C37  1  0.50000049  0.32010176  0.99999998  1.0
  C  C38  1  0.50000050  0.50000046  0.17989777  1.0
  C  C39  1  0.50000057  0.50000032  0.82010204  1.0
  N  N40  1  0.29312289  0.99999995  0.99999991  1.0
  N  N41  1  0.70687674  0.00000001  0.00000002  1.0
  N  N42  1  0.99999974  0.29312279  0.99999981  1.0
  N  N43  1  0.00000007  0.70687727  0.00000014  1.0
  N  N44  1  0.99999996  0.00000002  0.29312295  1.0
  N  N45  1  0.99999972  0.99999981  0.70687687  1.0
  N  N46  1  0.29312249  0.49999994  0.50000010  1.0
  N  N47  1  0.70687729  0.50000011  0.49999997  1.0
  N  N48  1  0.99999996  0.79312223  0.49999985  1.0
  N  N49  1  0.99999996  0.20687757  0.49999989  1.0
  N  N50  1  0.99999999  0.49999993  0.79312247  1.0
  N  N51  1  0.99999997  0.49999983  0.20687732  1.0
  N  N52  1  0.79312230  0.00000000  0.50000010  1.0
  N  N53  1  0.20687763  0.00000004  0.49999989  1.0
  N  N54  1  0.49999996  0.29312221  0.50000011  1.0
  N  N55  1  0.50000007  0.70687764  0.49999998  1.0
  N  N56  1  0.49999985  0.99999994  0.79312227  1.0
  N  N57  1  0.50000004  0.99999982  0.20687790  1.0
  N  N58  1  0.79312210  0.49999994  0.00000004  1.0
  N  N59  1  0.20687765  0.50000003  0.00000014  1.0
  N  N60  1  0.49999993  0.79312210  0.00000000  1.0
  N  N61  1  0.49999993  0.20687769  0.00000007  1.0
  N  N62  1  0.49999985  0.50000005  0.29312233  1.0
  N  N63  1  0.50000002  0.49999996  0.70687750  1.0
