# generated using pymatgen
data_Ac2SiAg
_symmetry_space_group_name_H-M   'P 1'
_cell_length_a   7.80908549
_cell_length_b   7.80908549
_cell_length_c   7.80908549
_cell_angle_alpha   90.00000000
_cell_angle_beta   90.00000000
_cell_angle_gamma   90.00000000
_symmetry_Int_Tables_number   1
_chemical_formula_structural   Ac2SiAg
_chemical_formula_sum   'Ac8 Si4 Ag4'
_cell_volume   476.21221577
_cell_formula_units_Z   4
loop_
 _symmetry_equiv_pos_site_id
 _symmetry_equiv_pos_as_xyz
  1  'x, y, z'
loop_
 _atom_site_type_symbol
 _atom_site_label
 _atom_site_symmetry_multiplicity
 _atom_site_fract_x
 _atom_site_fract_y
 _atom_site_fract_z
 _atom_site_occupancy
  Ac  Ac0  1  0.25000000  0.25000000  0.25000000  1
  Ac  Ac1  1  0.25000000  0.25000000  0.75000000  1
  Ac  Ac2  1  0.25000000  0.75000000  0.75000000  1
  Ac  Ac3  1  0.25000000  0.75000000  0.25000000  1
  Ac  Ac4  1  0.75000000  0.25000000  0.75000000  1
  Ac  Ac5  1  0.75000000  0.25000000  0.25000000  1
  Ac  Ac6  1  0.75000000  0.75000000  0.25000000  1
  Ac  Ac7  1  0.75000000  0.75000000  0.75000000  1
  Si  Si8  1  0.00000000  0.00000000  0.00000000  1
  Si  Si9  1  0.00000000  0.50000000  0.50000000  1
  Si  Si10  1  0.50000000  0.00000000  0.50000000  1
  Si  Si11  1  0.50000000  0.50000000  0.00000000  1
  Ag  Ag12  1  0.50000000  0.50000000  0.50000000  1
  Ag  Ag13  1  0.50000000  0.00000000  0.00000000  1
  Ag  Ag14  1  0.00000000  0.50000000  0.00000000  1
  Ag  Ag15  1  0.00000000  0.00000000  0.50000000  1
